data_image0
_chemical_formula_structural       CrVTi2VNbVTiNbCrVNb2TiCr2H30
_chemical_formula_sum              "Cr4 V4 Ti4 Nb4 H30"
_cell_length_a       8.20244
_cell_length_b       8.20244
_cell_length_c       4.10122
_cell_angle_alpha    90
_cell_angle_beta     90
_cell_angle_gamma    90

_space_group_name_H-M_alt    "P 1"
_space_group_IT_number       1

loop_
  _space_group_symop_operation_xyz
  'x, y, z'

loop_
  _atom_site_type_symbol
  _atom_site_label
  _atom_site_symmetry_multiplicity
  _atom_site_fract_x
  _atom_site_fract_y
  _atom_site_fract_z
  _atom_site_occupancy
  Cr  Cr1       1.0  0.00000  0.00000  0.00000  1.0000
  V   V1        1.0  0.00000  0.25000  0.50000  1.0000
  Ti  Ti1       1.0  0.25000  0.00000  0.50000  1.0000
  Ti  Ti2       1.0  0.25000  0.25000  0.00000  1.0000
  V   V2        1.0  0.00000  0.50000  0.00000  1.0000
  Nb  Nb1       1.0  0.00000  0.75000  0.50000  1.0000
  V   V3        1.0  0.25000  0.50000  0.50000  1.0000
  Ti  Ti3       1.0  0.25000  0.75000  0.00000  1.0000
  Nb  Nb2       1.0  0.50000  0.00000  0.00000  1.0000
  Cr  Cr2       1.0  0.50000  0.25000  0.50000  1.0000
  V   V4        1.0  0.75000  0.00000  0.50000  1.0000
  Nb  Nb3       1.0  0.75000  0.25000  0.00000  1.0000
  Nb  Nb4       1.0  0.50000  0.50000  0.00000  1.0000
  Ti  Ti4       1.0  0.50000  0.75000  0.50000  1.0000
  Cr  Cr3       1.0  0.75000  0.50000  0.50000  1.0000
  Cr  Cr4       1.0  0.75000  0.75000  0.00000  1.0000
  H   H1        1.0  0.37500  0.87500  0.25000  1.0000
  H   H2        1.0  0.37500  0.87500  0.75000  1.0000
  H   H3        1.0  0.37500  0.62500  0.25000  1.0000
  H   H4        1.0  0.37500  0.62500  0.75000  1.0000
  H   H5        1.0  0.37500  0.12500  0.25000  1.0000
  H   H6        1.0  0.37500  0.12500  0.75000  1.0000
  H   H7        1.0  0.12500  0.87500  0.25000  1.0000
  H   H8        1.0  0.12500  0.87500  0.75000  1.0000
  H   H9        1.0  0.12500  0.12500  0.25000  1.0000
  H   H10       1.0  0.12500  0.12500  0.75000  1.0000
  H   H11       1.0  0.12500  0.62500  0.25000  1.0000
  H   H12       1.0  0.12500  0.62500  0.75000  1.0000
  H   H13       1.0  0.12500  0.37500  0.25000  1.0000
  H   H14       1.0  0.37500  0.37500  0.25000  1.0000
  H   H15       1.0  0.12500  0.37500  0.75000  1.0000
  H   H16       1.0  0.37500  0.37500  0.75000  1.0000
  H   H17       1.0  0.62500  0.87500  0.25000  1.0000
  H   H18       1.0  0.62500  0.87500  0.75000  1.0000
  H   H19       1.0  0.62500  0.62500  0.25000  1.0000
  H   H20       1.0  0.62500  0.62500  0.75000  1.0000
  H   H21       1.0  0.62500  0.12500  0.25000  1.0000
  H   H22       1.0  0.62500  0.12500  0.75000  1.0000
  H   H23       1.0  0.62500  0.37500  0.25000  1.0000
  H   H24       1.0  0.87500  0.12500  0.25000  1.0000
  H   H25       1.0  0.87500  0.37500  0.25000  1.0000
  H   H26       1.0  0.62500  0.37500  0.75000  1.0000
  H   H27       1.0  0.87500  0.12500  0.75000  1.0000
  H   H28       1.0  0.87500  0.37500  0.75000  1.0000
  H   H29       1.0  0.87500  0.62500  0.25000  1.0000
  H   H30       1.0  0.87500  0.87500  0.25000  1.0000
