data_image0
_chemical_formula_structural       H144CrVTi2VNbVTiNbCrVNb2TiCr2
_chemical_formula_sum              "H144 Cr4 V4 Ti4 Nb4"
_cell_length_a       6.69726
_cell_length_b       6.69726
_cell_length_c       6.69726
_cell_angle_alpha    90
_cell_angle_beta     90
_cell_angle_gamma    90

_space_group_name_H-M_alt    "P 1"
_space_group_IT_number       1

loop_
  _space_group_symop_operation_xyz
  'x, y, z'

loop_
  _atom_site_type_symbol
  _atom_site_label
  _atom_site_symmetry_multiplicity
  _atom_site_fract_x
  _atom_site_fract_y
  _atom_site_fract_z
  _atom_site_occupancy
  H   H1        1.0  0.00000  0.25000  0.00000  1.0000
  H   H2        1.0  0.25000  0.00000  0.00000  1.0000
  H   H3        1.0  0.00000  0.25000  0.25000  1.0000
  H   H4        1.0  0.25000  0.00000  0.25000  1.0000
  H   H5        1.0  0.25000  0.25000  0.00000  1.0000
  H   H6        1.0  0.00000  0.00000  0.25000  1.0000
  H   H7        1.0  0.12500  0.25000  0.00000  1.0000
  H   H8        1.0  0.25000  0.12500  0.00000  1.0000
  H   H9        1.0  0.37500  0.25000  0.00000  1.0000
  H   H10       1.0  0.25000  0.37500  0.00000  1.0000
  H   H11       1.0  0.00000  0.12500  0.25000  1.0000
  H   H12       1.0  0.00000  0.25000  0.12500  1.0000
  H   H13       1.0  0.00000  0.37500  0.25000  1.0000
  H   H14       1.0  0.00000  0.25000  0.37500  1.0000
  H   H15       1.0  0.12500  0.00000  0.25000  1.0000
  H   H16       1.0  0.25000  0.00000  0.12500  1.0000
  H   H17       1.0  0.37500  0.00000  0.25000  1.0000
  H   H18       1.0  0.25000  0.00000  0.37500  1.0000
  H   H19       1.0  0.00000  0.25000  0.50000  1.0000
  H   H20       1.0  0.25000  0.00000  0.50000  1.0000
  H   H21       1.0  0.00000  0.25000  0.75000  1.0000
  H   H22       1.0  0.25000  0.00000  0.75000  1.0000
  H   H23       1.0  0.25000  0.25000  0.50000  1.0000
  H   H24       1.0  0.00000  0.00000  0.75000  1.0000
  H   H25       1.0  0.12500  0.25000  0.50000  1.0000
  H   H26       1.0  0.25000  0.12500  0.50000  1.0000
  H   H27       1.0  0.37500  0.25000  0.50000  1.0000
  H   H28       1.0  0.25000  0.37500  0.50000  1.0000
  H   H29       1.0  0.00000  0.12500  0.75000  1.0000
  H   H30       1.0  0.00000  0.25000  0.62500  1.0000
  H   H31       1.0  0.00000  0.37500  0.75000  1.0000
  H   H32       1.0  0.00000  0.25000  0.87500  1.0000
  H   H33       1.0  0.12500  0.00000  0.75000  1.0000
  H   H34       1.0  0.25000  0.00000  0.62500  1.0000
  H   H35       1.0  0.37500  0.00000  0.75000  1.0000
  H   H36       1.0  0.25000  0.00000  0.87500  1.0000
  H   H37       1.0  0.00000  0.75000  0.00000  1.0000
  H   H38       1.0  0.25000  0.50000  0.00000  1.0000
  H   H39       1.0  0.00000  0.75000  0.25000  1.0000
  H   H40       1.0  0.25000  0.50000  0.25000  1.0000
  H   H41       1.0  0.25000  0.75000  0.00000  1.0000
  H   H42       1.0  0.00000  0.50000  0.25000  1.0000
  H   H43       1.0  0.12500  0.75000  0.00000  1.0000
  H   H44       1.0  0.25000  0.62500  0.00000  1.0000
  H   H45       1.0  0.37500  0.75000  0.00000  1.0000
  H   H46       1.0  0.25000  0.87500  0.00000  1.0000
  H   H47       1.0  0.00000  0.62500  0.25000  1.0000
  H   H48       1.0  0.00000  0.75000  0.12500  1.0000
  H   H49       1.0  0.00000  0.87500  0.25000  1.0000
  H   H50       1.0  0.00000  0.75000  0.37500  1.0000
  H   H51       1.0  0.12500  0.50000  0.25000  1.0000
  H   H52       1.0  0.25000  0.50000  0.12500  1.0000
  H   H53       1.0  0.37500  0.50000  0.25000  1.0000
  H   H54       1.0  0.25000  0.50000  0.37500  1.0000
  H   H55       1.0  0.00000  0.75000  0.50000  1.0000
  H   H56       1.0  0.25000  0.50000  0.50000  1.0000
  H   H57       1.0  0.00000  0.75000  0.75000  1.0000
  H   H58       1.0  0.25000  0.50000  0.75000  1.0000
  H   H59       1.0  0.25000  0.75000  0.50000  1.0000
  H   H60       1.0  0.00000  0.50000  0.75000  1.0000
  H   H61       1.0  0.12500  0.75000  0.50000  1.0000
  H   H62       1.0  0.25000  0.62500  0.50000  1.0000
  H   H63       1.0  0.37500  0.75000  0.50000  1.0000
  H   H64       1.0  0.25000  0.87500  0.50000  1.0000
  H   H65       1.0  0.00000  0.62500  0.75000  1.0000
  H   H66       1.0  0.00000  0.75000  0.62500  1.0000
  H   H67       1.0  0.00000  0.87500  0.75000  1.0000
  H   H68       1.0  0.00000  0.75000  0.87500  1.0000
  H   H69       1.0  0.12500  0.50000  0.75000  1.0000
  H   H70       1.0  0.25000  0.50000  0.62500  1.0000
  H   H71       1.0  0.37500  0.50000  0.75000  1.0000
  H   H72       1.0  0.25000  0.50000  0.87500  1.0000
  H   H73       1.0  0.50000  0.25000  0.00000  1.0000
  H   H74       1.0  0.75000  0.00000  0.00000  1.0000
  H   H75       1.0  0.50000  0.25000  0.25000  1.0000
  H   H76       1.0  0.75000  0.00000  0.25000  1.0000
  H   H77       1.0  0.75000  0.25000  0.00000  1.0000
  H   H78       1.0  0.50000  0.00000  0.25000  1.0000
  H   H79       1.0  0.62500  0.25000  0.00000  1.0000
  H   H80       1.0  0.75000  0.12500  0.00000  1.0000
  H   H81       1.0  0.87500  0.25000  0.00000  1.0000
  H   H82       1.0  0.75000  0.37500  0.00000  1.0000
  H   H83       1.0  0.50000  0.12500  0.25000  1.0000
  H   H84       1.0  0.50000  0.25000  0.12500  1.0000
  H   H85       1.0  0.50000  0.37500  0.25000  1.0000
  H   H86       1.0  0.50000  0.25000  0.37500  1.0000
  H   H87       1.0  0.62500  0.00000  0.25000  1.0000
  H   H88       1.0  0.75000  0.00000  0.12500  1.0000
  H   H89       1.0  0.87500  0.00000  0.25000  1.0000
  H   H90       1.0  0.75000  0.00000  0.37500  1.0000
  H   H91       1.0  0.50000  0.25000  0.50000  1.0000
  H   H92       1.0  0.75000  0.00000  0.50000  1.0000
  H   H93       1.0  0.50000  0.25000  0.75000  1.0000
  H   H94       1.0  0.75000  0.00000  0.75000  1.0000
  H   H95       1.0  0.75000  0.25000  0.50000  1.0000
  H   H96       1.0  0.50000  0.00000  0.75000  1.0000
  H   H97       1.0  0.62500  0.25000  0.50000  1.0000
  H   H98       1.0  0.75000  0.12500  0.50000  1.0000
  H   H99       1.0  0.87500  0.25000  0.50000  1.0000
  H   H100      1.0  0.75000  0.37500  0.50000  1.0000
  H   H101      1.0  0.50000  0.12500  0.75000  1.0000
  H   H102      1.0  0.50000  0.25000  0.62500  1.0000
  H   H103      1.0  0.50000  0.37500  0.75000  1.0000
  H   H104      1.0  0.50000  0.25000  0.87500  1.0000
  H   H105      1.0  0.62500  0.00000  0.75000  1.0000
  H   H106      1.0  0.75000  0.00000  0.62500  1.0000
  H   H107      1.0  0.87500  0.00000  0.75000  1.0000
  H   H108      1.0  0.75000  0.00000  0.87500  1.0000
  H   H109      1.0  0.50000  0.75000  0.00000  1.0000
  H   H110      1.0  0.75000  0.50000  0.00000  1.0000
  H   H111      1.0  0.50000  0.75000  0.25000  1.0000
  H   H112      1.0  0.75000  0.50000  0.25000  1.0000
  H   H113      1.0  0.75000  0.75000  0.00000  1.0000
  H   H114      1.0  0.50000  0.50000  0.25000  1.0000
  H   H115      1.0  0.62500  0.75000  0.00000  1.0000
  H   H116      1.0  0.75000  0.62500  0.00000  1.0000
  H   H117      1.0  0.87500  0.75000  0.00000  1.0000
  H   H118      1.0  0.75000  0.87500  0.00000  1.0000
  H   H119      1.0  0.50000  0.62500  0.25000  1.0000
  H   H120      1.0  0.50000  0.75000  0.12500  1.0000
  H   H121      1.0  0.50000  0.87500  0.25000  1.0000
  H   H122      1.0  0.50000  0.75000  0.37500  1.0000
  H   H123      1.0  0.62500  0.50000  0.25000  1.0000
  H   H124      1.0  0.75000  0.50000  0.12500  1.0000
  H   H125      1.0  0.87500  0.50000  0.25000  1.0000
  H   H126      1.0  0.75000  0.50000  0.37500  1.0000
  H   H127      1.0  0.50000  0.75000  0.50000  1.0000
  H   H128      1.0  0.75000  0.50000  0.50000  1.0000
  H   H129      1.0  0.50000  0.75000  0.75000  1.0000
  H   H130      1.0  0.75000  0.50000  0.75000  1.0000
  H   H131      1.0  0.75000  0.75000  0.50000  1.0000
  H   H132      1.0  0.50000  0.50000  0.75000  1.0000
  H   H133      1.0  0.62500  0.75000  0.50000  1.0000
  H   H134      1.0  0.75000  0.62500  0.50000  1.0000
  H   H135      1.0  0.87500  0.75000  0.50000  1.0000
  H   H136      1.0  0.75000  0.87500  0.50000  1.0000
  H   H137      1.0  0.50000  0.62500  0.75000  1.0000
  H   H138      1.0  0.50000  0.75000  0.62500  1.0000
  H   H139      1.0  0.50000  0.87500  0.75000  1.0000
  H   H140      1.0  0.50000  0.75000  0.87500  1.0000
  H   H141      1.0  0.62500  0.50000  0.75000  1.0000
  H   H142      1.0  0.75000  0.50000  0.62500  1.0000
  H   H143      1.0  0.87500  0.50000  0.75000  1.0000
  H   H144      1.0  0.75000  0.50000  0.87500  1.0000
  Cr  Cr1       1.0  0.00000  0.00000  0.00000  1.0000
  V   V1        1.0  0.25000  0.25000  0.25000  1.0000
  Ti  Ti1       1.0  0.00000  0.00000  0.50000  1.0000
  Ti  Ti2       1.0  0.25000  0.25000  0.75000  1.0000
  V   V2        1.0  0.00000  0.50000  0.00000  1.0000
  Nb  Nb1       1.0  0.25000  0.75000  0.25000  1.0000
  V   V3        1.0  0.00000  0.50000  0.50000  1.0000
  Ti  Ti3       1.0  0.25000  0.75000  0.75000  1.0000
  Nb  Nb2       1.0  0.50000  0.00000  0.00000  1.0000
  Cr  Cr2       1.0  0.75000  0.25000  0.25000  1.0000
  V   V4        1.0  0.50000  0.00000  0.50000  1.0000
  Nb  Nb3       1.0  0.75000  0.25000  0.75000  1.0000
  Nb  Nb4       1.0  0.50000  0.50000  0.00000  1.0000
  Ti  Ti4       1.0  0.75000  0.75000  0.25000  1.0000
  Cr  Cr3       1.0  0.50000  0.50000  0.50000  1.0000
  Cr  Cr4       1.0  0.75000  0.75000  0.75000  1.0000
