data_image0
_cell_length_a       14.5
_cell_length_b       14.5
_cell_length_c       14.5
_cell_angle_alpha    60
_cell_angle_beta     60
_cell_angle_gamma    60

_symmetry_space_group_name_H-M    "P 1"
_symmetry_int_tables_number       1

loop_
  _symmetry_equiv_pos_as_xyz
  'x, y, z'

loop_
  _atom_site_label
  _atom_site_occupancy
  _atom_site_fract_x
  _atom_site_fract_y
  _atom_site_fract_z
  _atom_site_thermal_displace_type
  _atom_site_B_iso_or_equiv
  _atom_site_type_symbol
  Cr1      1.0000 0.00000  0.00000  0.00000  Biso   1.000  Cr
  Nb1      1.0000 0.00000  0.00000  0.20000  Biso   1.000  Nb
  Ti1      1.0000 0.00000  0.00000  0.40000  Biso   1.000  Ti
  Cr2      1.0000 0.00000  0.00000  0.60000  Biso   1.000  Cr
  V1       1.0000 0.00000  0.00000  0.80000  Biso   1.000  V
  Nb2      1.0000 0.00000  0.20000  0.00000  Biso   1.000  Nb
  Nb3      1.0000 0.00000  0.20000  0.20000  Biso   1.000  Nb
  Cr3      1.0000 0.00000  0.20000  0.40000  Biso   1.000  Cr
  Cr4      1.0000 0.00000  0.20000  0.60000  Biso   1.000  Cr
  Nb4      1.0000 0.00000  0.20000  0.80000  Biso   1.000  Nb
  V2       1.0000 0.00000  0.40000  0.00000  Biso   1.000  V
  Nb5      1.0000 0.00000  0.40000  0.20000  Biso   1.000  Nb
  Nb6      1.0000 0.00000  0.40000  0.40000  Biso   1.000  Nb
  Cr5      1.0000 0.00000  0.40000  0.60000  Biso   1.000  Cr
  Nb7      1.0000 0.00000  0.40000  0.80000  Biso   1.000  Nb
  Cr6      1.0000 0.00000  0.60000  0.00000  Biso   1.000  Cr
  Nb8      1.0000 0.00000  0.60000  0.20000  Biso   1.000  Nb
  Ti2      1.0000 0.00000  0.60000  0.40000  Biso   1.000  Ti
  Nb9      1.0000 0.00000  0.60000  0.60000  Biso   1.000  Nb
  V3       1.0000 0.00000  0.60000  0.80000  Biso   1.000  V
  Nb10     1.0000 0.00000  0.80000  0.00000  Biso   1.000  Nb
  Cr7      1.0000 0.00000  0.80000  0.20000  Biso   1.000  Cr
  Cr8      1.0000 0.00000  0.80000  0.40000  Biso   1.000  Cr
  V4       1.0000 0.00000  0.80000  0.60000  Biso   1.000  V
  Cr9      1.0000 0.00000  0.80000  0.80000  Biso   1.000  Cr
  Nb11     1.0000 0.20000  0.00000  0.00000  Biso   1.000  Nb
  Cr10     1.0000 0.20000  0.00000  0.20000  Biso   1.000  Cr
  V5       1.0000 0.20000  0.00000  0.40000  Biso   1.000  V
  Nb12     1.0000 0.20000  0.00000  0.60000  Biso   1.000  Nb
  Nb13     1.0000 0.20000  0.00000  0.80000  Biso   1.000  Nb
  Cr11     1.0000 0.20000  0.20000  0.00000  Biso   1.000  Cr
  Ti3      1.0000 0.20000  0.20000  0.20000  Biso   1.000  Ti
  V6       1.0000 0.20000  0.20000  0.40000  Biso   1.000  V
  Ti4      1.0000 0.20000  0.20000  0.60000  Biso   1.000  Ti
  V7       1.0000 0.20000  0.20000  0.80000  Biso   1.000  V
  Ti5      1.0000 0.20000  0.40000  0.00000  Biso   1.000  Ti
  V8       1.0000 0.20000  0.40000  0.20000  Biso   1.000  V
  Nb14     1.0000 0.20000  0.40000  0.40000  Biso   1.000  Nb
  V9       1.0000 0.20000  0.40000  0.60000  Biso   1.000  V
  V10      1.0000 0.20000  0.40000  0.80000  Biso   1.000  V
  V11      1.0000 0.20000  0.60000  0.00000  Biso   1.000  V
  Cr12     1.0000 0.20000  0.60000  0.20000  Biso   1.000  Cr
  V12      1.0000 0.20000  0.60000  0.40000  Biso   1.000  V
  Cr13     1.0000 0.20000  0.60000  0.60000  Biso   1.000  Cr
  Ti6      1.0000 0.20000  0.60000  0.80000  Biso   1.000  Ti
  Ti7      1.0000 0.20000  0.80000  0.00000  Biso   1.000  Ti
  Ti8      1.0000 0.20000  0.80000  0.20000  Biso   1.000  Ti
  Cr14     1.0000 0.20000  0.80000  0.40000  Biso   1.000  Cr
  Ti9      1.0000 0.20000  0.80000  0.60000  Biso   1.000  Ti
  Cr15     1.0000 0.20000  0.80000  0.80000  Biso   1.000  Cr
  Nb15     1.0000 0.40000  0.00000  0.00000  Biso   1.000  Nb
  Ti10     1.0000 0.40000  0.00000  0.20000  Biso   1.000  Ti
  Cr16     1.0000 0.40000  0.00000  0.40000  Biso   1.000  Cr
  Ti11     1.0000 0.40000  0.00000  0.60000  Biso   1.000  Ti
  V13      1.0000 0.40000  0.00000  0.80000  Biso   1.000  V
  V14      1.0000 0.40000  0.20000  0.00000  Biso   1.000  V
  Ti12     1.0000 0.40000  0.20000  0.20000  Biso   1.000  Ti
  Cr17     1.0000 0.40000  0.20000  0.40000  Biso   1.000  Cr
  V15      1.0000 0.40000  0.20000  0.60000  Biso   1.000  V
  V16      1.0000 0.40000  0.20000  0.80000  Biso   1.000  V
  Cr18     1.0000 0.40000  0.40000  0.00000  Biso   1.000  Cr
  Cr19     1.0000 0.40000  0.40000  0.20000  Biso   1.000  Cr
  Ti13     1.0000 0.40000  0.40000  0.40000  Biso   1.000  Ti
  Cr20     1.0000 0.40000  0.40000  0.60000  Biso   1.000  Cr
  Nb16     1.0000 0.40000  0.40000  0.80000  Biso   1.000  Nb
  Ti14     1.0000 0.40000  0.60000  0.00000  Biso   1.000  Ti
  Ti15     1.0000 0.40000  0.60000  0.20000  Biso   1.000  Ti
  V17      1.0000 0.40000  0.60000  0.40000  Biso   1.000  V
  Nb17     1.0000 0.40000  0.60000  0.60000  Biso   1.000  Nb
  Ti16     1.0000 0.40000  0.60000  0.80000  Biso   1.000  Ti
  Cr21     1.0000 0.40000  0.80000  0.00000  Biso   1.000  Cr
  Nb18     1.0000 0.40000  0.80000  0.20000  Biso   1.000  Nb
  Nb19     1.0000 0.40000  0.80000  0.40000  Biso   1.000  Nb
  V18      1.0000 0.40000  0.80000  0.60000  Biso   1.000  V
  Ti17     1.0000 0.40000  0.80000  0.80000  Biso   1.000  Ti
  Nb20     1.0000 0.60000  0.00000  0.00000  Biso   1.000  Nb
  Nb21     1.0000 0.60000  0.00000  0.20000  Biso   1.000  Nb
  V19      1.0000 0.60000  0.00000  0.40000  Biso   1.000  V
  Ti18     1.0000 0.60000  0.00000  0.60000  Biso   1.000  Ti
  Nb22     1.0000 0.60000  0.00000  0.80000  Biso   1.000  Nb
  V20      1.0000 0.60000  0.20000  0.00000  Biso   1.000  V
  Cr22     1.0000 0.60000  0.20000  0.20000  Biso   1.000  Cr
  V21      1.0000 0.60000  0.20000  0.40000  Biso   1.000  V
  Ti19     1.0000 0.60000  0.20000  0.60000  Biso   1.000  Ti
  Nb23     1.0000 0.60000  0.20000  0.80000  Biso   1.000  Nb
  Cr23     1.0000 0.60000  0.40000  0.00000  Biso   1.000  Cr
  Nb24     1.0000 0.60000  0.40000  0.20000  Biso   1.000  Nb
  Nb25     1.0000 0.60000  0.40000  0.40000  Biso   1.000  Nb
  V22      1.0000 0.60000  0.40000  0.60000  Biso   1.000  V
  V23      1.0000 0.60000  0.40000  0.80000  Biso   1.000  V
  Ti20     1.0000 0.60000  0.60000  0.00000  Biso   1.000  Ti
  V24      1.0000 0.60000  0.60000  0.20000  Biso   1.000  V
  V25      1.0000 0.60000  0.60000  0.40000  Biso   1.000  V
  Cr24     1.0000 0.60000  0.60000  0.60000  Biso   1.000  Cr
  Nb26     1.0000 0.60000  0.60000  0.80000  Biso   1.000  Nb
  Ti21     1.0000 0.60000  0.80000  0.00000  Biso   1.000  Ti
  Cr25     1.0000 0.60000  0.80000  0.20000  Biso   1.000  Cr
  Nb27     1.0000 0.60000  0.80000  0.40000  Biso   1.000  Nb
  Cr26     1.0000 0.60000  0.80000  0.60000  Biso   1.000  Cr
  V26      1.0000 0.60000  0.80000  0.80000  Biso   1.000  V
  Ti22     1.0000 0.80000  0.00000  0.00000  Biso   1.000  Ti
  Nb28     1.0000 0.80000  0.00000  0.20000  Biso   1.000  Nb
  V27      1.0000 0.80000  0.00000  0.40000  Biso   1.000  V
  Ti23     1.0000 0.80000  0.00000  0.60000  Biso   1.000  Ti
  Ti24     1.0000 0.80000  0.00000  0.80000  Biso   1.000  Ti
  Ti25     1.0000 0.80000  0.20000  0.00000  Biso   1.000  Ti
  Ti26     1.0000 0.80000  0.20000  0.20000  Biso   1.000  Ti
  Nb29     1.0000 0.80000  0.20000  0.40000  Biso   1.000  Nb
  Nb30     1.0000 0.80000  0.20000  0.60000  Biso   1.000  Nb
  Nb31     1.0000 0.80000  0.20000  0.80000  Biso   1.000  Nb
  Ti27     1.0000 0.80000  0.40000  0.00000  Biso   1.000  Ti
  V28      1.0000 0.80000  0.40000  0.20000  Biso   1.000  V
  Cr27     1.0000 0.80000  0.40000  0.40000  Biso   1.000  Cr
  Cr28     1.0000 0.80000  0.40000  0.60000  Biso   1.000  Cr
  Cr29     1.0000 0.80000  0.40000  0.80000  Biso   1.000  Cr
  Ti28     1.0000 0.80000  0.60000  0.00000  Biso   1.000  Ti
  V29      1.0000 0.80000  0.60000  0.20000  Biso   1.000  V
  V30      1.0000 0.80000  0.60000  0.40000  Biso   1.000  V
  Ti29     1.0000 0.80000  0.60000  0.60000  Biso   1.000  Ti
  Ti30     1.0000 0.80000  0.60000  0.80000  Biso   1.000  Ti
  Cr30     1.0000 0.80000  0.80000  0.00000  Biso   1.000  Cr
  Cr31     1.0000 0.80000  0.80000  0.20000  Biso   1.000  Cr
  Ti31     1.0000 0.80000  0.80000  0.40000  Biso   1.000  Ti
  Ti32     1.0000 0.80000  0.80000  0.60000  Biso   1.000  Ti
  V31      1.0000 0.80000  0.80000  0.80000  Biso   1.000  V
  H1       1.0000 0.35000  0.70000  0.90000  Biso   1.000  H
  H2       1.0000 0.75000  0.55000  0.95000  Biso   1.000  H
  H3       1.0000 0.50000  0.65000  0.90000  Biso   1.000  H
  H4       1.0000 0.65000  0.05000  0.65000  Biso   1.000  H
  H5       1.0000 0.75000  0.30000  0.10000  Biso   1.000  H
  H6       1.0000 0.90000  0.65000  0.55000  Biso   1.000  H
  H7       1.0000 0.35000  0.15000  0.15000  Biso   1.000  H
  H8       1.0000 0.55000  0.65000  0.10000  Biso   1.000  H
  H9       1.0000 0.45000  0.95000  0.70000  Biso   1.000  H
  H10      1.0000 0.75000  0.70000  0.70000  Biso   1.000  H
  H11      1.0000 0.75000  0.90000  0.50000  Biso   1.000  H
  H12      1.0000 0.85000  0.65000  0.45000  Biso   1.000  H
  H13      1.0000 0.10000  0.30000  0.15000  Biso   1.000  H
  H14      1.0000 0.25000  0.05000  0.65000  Biso   1.000  H
  H15      1.0000 0.90000  0.15000  0.30000  Biso   1.000  H
  H16      1.0000 0.85000  0.10000  0.50000  Biso   1.000  H
  H17      1.0000 0.85000  0.15000  0.90000  Biso   1.000  H
  H18      1.0000 0.90000  0.25000  0.10000  Biso   1.000  H
  H19      1.0000 0.15000  0.90000  0.10000  Biso   1.000  H
  H20      1.0000 0.35000  0.55000  0.75000  Biso   1.000  H
  H21      1.0000 0.35000  0.70000  0.05000  Biso   1.000  H
  H22      1.0000 0.25000  0.90000  0.90000  Biso   1.000  H
  H23      1.0000 0.50000  0.55000  0.05000  Biso   1.000  H
  H24      1.0000 0.50000  0.45000  0.30000  Biso   1.000  H
  H25      1.0000 0.75000  0.05000  0.10000  Biso   1.000  H
  H26      1.0000 0.75000  0.10000  0.70000  Biso   1.000  H
  H27      1.0000 0.70000  0.05000  0.90000  Biso   1.000  H
  H28      1.0000 0.85000  0.15000  0.10000  Biso   1.000  H
  H29      1.0000 0.90000  0.25000  0.95000  Biso   1.000  H
  H30      1.0000 0.30000  0.50000  0.35000  Biso   1.000  H
  H31      1.0000 0.45000  0.70000  0.75000  Biso   1.000  H
  H32      1.0000 0.75000  0.95000  0.75000  Biso   1.000  H
  H33      1.0000 0.90000  0.05000  0.30000  Biso   1.000  H
  H34      1.0000 0.90000  0.45000  0.90000  Biso   1.000  H
  H35      1.0000 0.25000  0.45000  0.85000  Biso   1.000  H
  H36      1.0000 0.10000  0.95000  0.25000  Biso   1.000  H
  H37      1.0000 0.05000  0.90000  0.30000  Biso   1.000  H
  H38      1.0000 0.25000  0.10000  0.30000  Biso   1.000  H
  H39      1.0000 0.25000  0.30000  0.10000  Biso   1.000  H
  H40      1.0000 0.25000  0.25000  0.25000  Biso   1.000  H
  H41      1.0000 0.30000  0.30000  0.45000  Biso   1.000  H
  H42      1.0000 0.30000  0.65000  0.30000  Biso   1.000  H
  H43      1.0000 0.25000  0.65000  0.65000  Biso   1.000  H
  H44      1.0000 0.50000  0.10000  0.55000  Biso   1.000  H
  H45      1.0000 0.50000  0.35000  0.50000  Biso   1.000  H
  H46      1.0000 0.50000  0.55000  0.90000  Biso   1.000  H
  H47      1.0000 0.45000  0.75000  0.10000  Biso   1.000  H
  H48      1.0000 0.50000  0.90000  0.05000  Biso   1.000  H
  H49      1.0000 0.50000  0.90000  0.75000  Biso   1.000  H
  H50      1.0000 0.65000  0.10000  0.50000  Biso   1.000  H
  H51      1.0000 0.75000  0.50000  0.10000  Biso   1.000  H
  H52      1.0000 0.75000  0.55000  0.75000  Biso   1.000  H
  H53      1.0000 0.65000  0.75000  0.90000  Biso   1.000  H
  H54      1.0000 0.90000  0.05000  0.55000  Biso   1.000  H
  H55      1.0000 0.95000  0.50000  0.50000  Biso   1.000  H
  H56      1.0000 0.85000  0.70000  0.75000  Biso   1.000  H
  H57      1.0000 0.85000  0.90000  0.55000  Biso   1.000  H
  H58      1.0000 0.85000  0.90000  0.95000  Biso   1.000  H
  H59      1.0000 0.05000  0.15000  0.30000  Biso   1.000  H
  H60      1.0000 0.45000  0.05000  0.25000  Biso   1.000  H
  H61      1.0000 0.15000  0.15000  0.75000  Biso   1.000  H
  H62      1.0000 0.35000  0.75000  0.55000  Biso   1.000  H
  H63      1.0000 0.35000  0.90000  0.30000  Biso   1.000  H
  H64      1.0000 0.50000  0.05000  0.10000  Biso   1.000  H
  H65      1.0000 0.75000  0.30000  0.30000  Biso   1.000  H
  H66      1.0000 0.65000  0.30000  0.50000  Biso   1.000  H
  H67      1.0000 0.05000  0.50000  0.30000  Biso   1.000  H
  H68      1.0000 0.10000  0.55000  0.90000  Biso   1.000  H
  H69      1.0000 0.10000  0.75000  0.70000  Biso   1.000  H
  H70      1.0000 0.30000  0.55000  0.90000  Biso   1.000  H
  H71      1.0000 0.30000  0.75000  0.70000  Biso   1.000  H
  H72      1.0000 0.35000  0.85000  0.70000  Biso   1.000  H
  H73      1.0000 0.55000  0.15000  0.75000  Biso   1.000  H
  H74      1.0000 0.55000  0.90000  0.90000  Biso   1.000  H
  H75      1.0000 0.70000  0.15000  0.90000  Biso   1.000  H
  H76      1.0000 0.75000  0.75000  0.95000  Biso   1.000  H
  H77      1.0000 0.65000  0.90000  0.35000  Biso   1.000  H
  H78      1.0000 0.65000  0.90000  0.50000  Biso   1.000  H
  H79      1.0000 0.85000  0.95000  0.30000  Biso   1.000  H
  H80      1.0000 0.95000  0.90000  0.50000  Biso   1.000  H
  H81      1.0000 0.05000  0.30000  0.70000  Biso   1.000  H
  H82      1.0000 0.30000  0.35000  0.50000  Biso   1.000  H
  H83      1.0000 0.35000  0.30000  0.90000  Biso   1.000  H
  H84      1.0000 0.50000  0.05000  0.75000  Biso   1.000  H
  H85      1.0000 0.50000  0.50000  0.35000  Biso   1.000  H
  H86      1.0000 0.50000  0.90000  0.15000  Biso   1.000  H
  H87      1.0000 0.75000  0.10000  0.30000  Biso   1.000  H
  H88      1.0000 0.90000  0.35000  0.10000  Biso   1.000  H
  H89      1.0000 0.90000  0.30000  0.85000  Biso   1.000  H
  H90      1.0000 0.05000  0.10000  0.10000  Biso   1.000  H
  H91      1.0000 0.05000  0.50000  0.50000  Biso   1.000  H
  H92      1.0000 0.15000  0.75000  0.15000  Biso   1.000  H
  H93      1.0000 0.35000  0.85000  0.10000  Biso   1.000  H
  H94      1.0000 0.45000  0.50000  0.10000  Biso   1.000  H
  H95      1.0000 0.70000  0.45000  0.95000  Biso   1.000  H
  H96      1.0000 0.75000  0.85000  0.30000  Biso   1.000  H
  H97      1.0000 0.70000  0.95000  0.90000  Biso   1.000  H
  H98      1.0000 0.90000  0.75000  0.30000  Biso   1.000  H
